<?xml version="1.0" encoding="UTF-8"?>

<!-- generated on 2023-01-25 20:46:40 by Eclipse SUMO netconvert Version 1.14.1
<configuration xmlns:xsi="http://www.w3.org/2001/XMLSchema-instance" xsi:noNamespaceSchemaLocation="http://sumo.dlr.de/xsd/netconvertConfiguration.xsd">

    <input>
        <type-files value="C:\Program%20Files%20(x86)\Eclipse\Sumo\data\typemap\osmNetconvert.typ.xml"/>
        <osm-files value="osm_bbox.osm.xml.gz"/>
    </input>

    <output>
        <output-file value="osm.net.xml"/>
        <output.street-names value="true"/>
        <output.original-names value="true"/>
    </output>

    <projection>
        <proj.utm value="true"/>
    </projection>

    <processing>
        <geometry.remove value="true"/>
        <roundabouts.guess value="true"/>
    </processing>

    <tls_building>
        <tls.discard-simple value="true"/>
        <tls.join value="true"/>
        <tls.guess-signals value="true"/>
        <tls.default-type value="actuated"/>
    </tls_building>

    <ramp_guessing>
        <ramps.guess value="true"/>
    </ramp_guessing>

    <edge_removal>
        <keep-edges.by-vclass value="passenger"/>
    </edge_removal>

    <junctions>
        <junctions.join value="true"/>
        <junctions.corner-detail value="5"/>
    </junctions>

    <report>
        <verbose value="true"/>
    </report>

</configuration>
-->

<net version="1.9" junctionCornerDetail="5" limitTurnSpeed="5.50" xmlns:xsi="http://www.w3.org/2001/XMLSchema-instance" xsi:noNamespaceSchemaLocation="http://sumo.dlr.de/xsd/net_file.xsd">

    <location netOffset="-368375.96,-5789913.35" convBoundary="0.00,0.00,385.07,382.48" origBoundary="13.072010,52.243893,13.077644,52.247373" projParameter="+proj=utm +zone=33 +ellps=WGS84 +datum=WGS84 +units=m +no_defs"/>

    <type id="highway.bridleway" priority="1" numLanes="1" speed="2.78" allow="pedestrian" oneway="1" width="2.00"/>
    <type id="highway.bus_guideway" priority="1" numLanes="1" speed="27.78" allow="bus" oneway="1"/>
    <type id="highway.cycleway" priority="1" numLanes="1" speed="5.56" allow="bicycle" oneway="0" width="1.00"/>
    <type id="highway.footway" priority="1" numLanes="1" speed="2.78" allow="pedestrian" oneway="1" width="2.00"/>
    <type id="highway.ford" priority="1" numLanes="1" speed="2.78" allow="army" oneway="0"/>
    <type id="highway.living_street" priority="2" numLanes="1" speed="2.78" disallow="tram rail_urban rail rail_electric rail_fast ship" oneway="0"/>
    <type id="highway.motorway" priority="14" numLanes="2" speed="39.44" allow="private emergency authority army vip passenger hov taxi bus coach delivery truck trailer motorcycle evehicle custom1 custom2" oneway="1"/>
    <type id="highway.motorway_link" priority="9" numLanes="1" speed="22.22" allow="private emergency authority army vip passenger hov taxi bus coach delivery truck trailer motorcycle evehicle custom1 custom2" oneway="1"/>
    <type id="highway.path" priority="1" numLanes="1" speed="5.56" allow="pedestrian bicycle" oneway="0" width="2.00"/>
    <type id="highway.pedestrian" priority="1" numLanes="1" speed="2.78" allow="pedestrian" oneway="1" width="2.00"/>
    <type id="highway.primary" priority="12" numLanes="2" speed="27.78" disallow="tram rail_urban rail rail_electric rail_fast ship" oneway="0"/>
    <type id="highway.primary_link" priority="7" numLanes="1" speed="22.22" disallow="tram rail_urban rail rail_electric rail_fast ship" oneway="0"/>
    <type id="highway.raceway" priority="15" numLanes="2" speed="83.33" allow="vip" oneway="0"/>
    <type id="highway.residential" priority="3" numLanes="1" speed="13.89" disallow="tram rail_urban rail rail_electric rail_fast ship" oneway="0"/>
    <type id="highway.secondary" priority="11" numLanes="1" speed="27.78" disallow="tram rail_urban rail rail_electric rail_fast ship" oneway="0"/>
    <type id="highway.secondary_link" priority="6" numLanes="1" speed="22.22" disallow="tram rail_urban rail rail_electric rail_fast ship" oneway="0"/>
    <type id="highway.service" priority="1" numLanes="1" speed="5.56" allow="pedestrian delivery bicycle" oneway="0"/>
    <type id="highway.stairs" priority="1" numLanes="1" speed="1.39" allow="pedestrian" oneway="1" width="2.00"/>
    <type id="highway.step" priority="1" numLanes="1" speed="1.39" allow="pedestrian" oneway="1" width="2.00"/>
    <type id="highway.steps" priority="1" numLanes="1" speed="1.39" allow="pedestrian" oneway="1" width="2.00"/>
    <type id="highway.tertiary" priority="10" numLanes="1" speed="22.22" disallow="tram rail_urban rail rail_electric rail_fast ship" oneway="0"/>
    <type id="highway.tertiary_link" priority="5" numLanes="1" speed="22.22" disallow="tram rail_urban rail rail_electric rail_fast ship" oneway="0"/>
    <type id="highway.track" priority="1" numLanes="1" speed="5.56" allow="pedestrian motorcycle moped bicycle" oneway="0"/>
    <type id="highway.trunk" priority="13" numLanes="2" speed="27.78" disallow="pedestrian bicycle tram rail_urban rail rail_electric rail_fast ship" oneway="0"/>
    <type id="highway.trunk_link" priority="8" numLanes="1" speed="22.22" disallow="pedestrian bicycle tram rail_urban rail rail_electric rail_fast ship" oneway="0"/>
    <type id="highway.unclassified" priority="4" numLanes="1" speed="13.89" disallow="tram rail_urban rail rail_electric rail_fast ship" oneway="0"/>
    <type id="highway.unsurfaced" priority="1" numLanes="1" speed="8.33" disallow="tram rail_urban rail rail_electric rail_fast ship" oneway="0"/>
    <type id="railway.highspeed" priority="21" numLanes="1" speed="69.44" allow="rail_fast" oneway="1"/>
    <type id="railway.light_rail" priority="19" numLanes="1" speed="27.78" allow="rail_urban" oneway="1"/>
    <type id="railway.preserved" priority="16" numLanes="1" speed="27.78" allow="rail" oneway="1"/>
    <type id="railway.rail" priority="20" numLanes="1" speed="44.44" allow="rail" oneway="1"/>
    <type id="railway.subway" priority="18" numLanes="1" speed="27.78" allow="rail_urban" oneway="1"/>
    <type id="railway.tram" priority="17" numLanes="1" speed="13.89" allow="tram" oneway="1"/>

    <edge id=":1110671287_0" function="internal">
        <lane id=":1110671287_0_0" index="0" disallow="tram rail_urban rail rail_electric rail_fast ship" speed="3.65" length="4.67" shape="293.45,381.66 293.37,383.10 292.88,383.85 291.99,383.92 290.69,383.29"/>
    </edge>
    <edge id=":1124642521_0" function="internal">
        <lane id=":1124642521_0_0" index="0" disallow="tram rail_urban rail rail_electric rail_fast ship" speed="3.65" length="4.67" shape="174.42,317.19 172.98,317.03 172.26,316.50 172.25,315.60 172.95,314.34"/>
    </edge>
    <edge id=":1124642522_0" function="internal">
        <lane id=":1124642522_0_0" index="0" disallow="tram rail_urban rail rail_electric rail_fast ship" speed="7.58" length="12.07" shape="237.10,292.42 235.15,290.11 232.75,288.97 229.90,289.03 226.58,290.26"/>
    </edge>
    <edge id=":1124642522_1" function="internal">
        <lane id=":1124642522_1_0" index="0" disallow="tram rail_urban rail rail_electric rail_fast ship" speed="12.54" length="17.96" shape="237.10,292.42 234.33,288.66 231.02,285.79 227.14,283.83 222.71,282.76"/>
    </edge>
    <edge id=":1124642522_2" function="internal">
        <lane id=":1124642522_2_0" index="0" disallow="tram rail_urban rail rail_electric rail_fast ship" speed="7.38" length="17.95" shape="237.10,292.42 234.88,287.32 235.25,283.93 238.23,282.26 243.79,282.30"/>
    </edge>
    <edge id=":1124642522_3" function="internal">
        <lane id=":1124642522_3_0" index="0" disallow="tram rail_urban rail rail_electric rail_fast ship" speed="3.65" length="4.67" shape="237.10,292.42 237.18,290.98 237.66,290.23 238.56,290.17 239.85,290.80"/>
    </edge>
    <edge id=":1124642522_4" function="internal">
        <lane id=":1124642522_4_0" index="0" disallow="tram rail_urban rail rail_electric rail_fast ship" speed="5.54" length="9.44" shape="243.37,285.47 240.45,285.45 238.88,286.33 238.69,288.11 239.85,290.80"/>
    </edge>
    <edge id=":1124642522_5" function="internal">
        <lane id=":1124642522_5_0" index="0" disallow="tram rail_urban rail rail_electric rail_fast ship" speed="13.89" length="17.66" shape="243.37,285.47 239.28,285.62 234.79,286.76 230.39,288.45 226.58,290.26"/>
    </edge>
    <edge id=":1124642522_6" function="internal">
        <lane id=":1124642522_6_0" index="0" disallow="tram rail_urban rail rail_electric rail_fast ship" speed="13.89" length="20.84" shape="243.37,285.47 222.71,282.76"/>
    </edge>
    <edge id=":1124642522_7" function="internal">
        <lane id=":1124642522_7_0" index="0" disallow="tram rail_urban rail rail_electric rail_fast ship" speed="3.65" length="1.44" shape="243.37,285.47 242.29,284.52"/>
    </edge>
    <edge id=":1124642522_16" function="internal">
        <lane id=":1124642522_16_0" index="0" disallow="tram rail_urban rail rail_electric rail_fast ship" speed="3.65" length="3.23" shape="242.29,284.52 242.00,283.68 242.50,282.93 243.79,282.30"/>
    </edge>
    <edge id=":1124642522_8" function="internal">
        <lane id=":1124642522_8_0" index="0" disallow="tram rail_urban rail rail_electric rail_fast ship" speed="13.89" length="20.84" shape="223.12,279.59 243.79,282.30"/>
    </edge>
    <edge id=":1124642522_9" function="internal">
        <lane id=":1124642522_9_0" index="0" disallow="tram rail_urban rail rail_electric rail_fast ship" speed="13.49" length="5.68" shape="223.12,279.59 228.28,280.83 228.61,281.00"/>
    </edge>
    <edge id=":1124642522_10" function="internal">
        <lane id=":1124642522_10_0" index="0" disallow="tram rail_urban rail rail_electric rail_fast ship" speed="7.52" length="7.61" shape="223.12,279.59 230.56,281.20"/>
    </edge>
    <edge id=":1124642522_11" function="internal">
        <lane id=":1124642522_11_0" index="0" disallow="tram rail_urban rail rail_electric rail_fast ship" speed="3.65" length="1.44" shape="223.12,279.59 224.21,280.54"/>
    </edge>
    <edge id=":1124642522_17" function="internal">
        <lane id=":1124642522_17_0" index="0" disallow="tram rail_urban rail rail_electric rail_fast ship" speed="13.49" length="15.19" shape="228.61,281.00 232.79,283.11 236.65,286.43 239.85,290.80"/>
    </edge>
    <edge id=":1124642522_18" function="internal">
        <lane id=":1124642522_18_0" index="0" disallow="tram rail_urban rail rail_electric rail_fast ship" speed="7.52" length="13.95" shape="230.56,281.20 233.61,283.52 232.29,286.54 226.58,290.26"/>
    </edge>
    <edge id=":1124642522_19" function="internal">
        <lane id=":1124642522_19_0" index="0" disallow="tram rail_urban rail rail_electric rail_fast ship" speed="3.65" length="3.23" shape="224.21,280.54 224.50,281.38 224.00,282.13 222.71,282.76"/>
    </edge>
    <edge id=":1124642522_12" function="internal">
        <lane id=":1124642522_12_0" index="0" disallow="tram rail_urban rail rail_electric rail_fast ship" speed="5.42" length="10.33" shape="224.15,287.92 226.94,286.11 227.63,284.65 226.22,283.53 222.71,282.76"/>
    </edge>
    <edge id=":1124642522_13" function="internal">
        <lane id=":1124642522_13_0" index="0" disallow="tram rail_urban rail rail_electric rail_fast ship" speed="13.89" length="20.60" shape="224.15,287.92 228.40,285.98 233.78,284.00 239.25,282.58 243.79,282.30"/>
    </edge>
    <edge id=":1124642522_14" function="internal">
        <lane id=":1124642522_14_0" index="0" disallow="tram rail_urban rail rail_electric rail_fast ship" speed="9.12" length="17.93" shape="224.15,287.92 229.16,286.02 233.45,285.87 237.01,287.46 239.85,290.80"/>
    </edge>
    <edge id=":1124642522_15" function="internal">
        <lane id=":1124642522_15_0" index="0" disallow="tram rail_urban rail rail_electric rail_fast ship" speed="3.72" length="4.93" shape="224.15,287.92 225.64,287.59 226.54,287.87 226.86,288.76 226.58,290.26"/>
    </edge>
    <edge id=":255737795_0" function="internal">
        <lane id=":255737795_0_0" index="0" disallow="tram rail_urban rail rail_electric rail_fast ship" speed="3.65" length="4.67" shape="111.08,0.56 111.41,-0.85 112.02,-1.50 112.91,-1.40 114.08,-0.56"/>
    </edge>
    <edge id=":343497570_0" function="internal">
        <lane id=":343497570_0_0" index="0" disallow="tram rail_urban rail rail_electric rail_fast ship" speed="13.89" length="14.97" shape="220.79,282.51 205.91,280.87"/>
    </edge>
    <edge id=":343497570_1" function="internal">
        <lane id=":343497570_1_0" index="0" disallow="tram rail_urban rail rail_electric rail_fast ship" speed="10.31" length="3.36" shape="220.79,282.51 217.57,281.53"/>
    </edge>
    <edge id=":343497570_2" function="internal">
        <lane id=":343497570_2_0" index="0" disallow="tram rail_urban rail rail_electric rail_fast ship" speed="3.65" length="1.44" shape="220.79,282.51 219.70,281.56"/>
    </edge>
    <edge id=":343497570_9" function="internal">
        <lane id=":343497570_9_0" index="0" disallow="tram rail_urban rail rail_electric rail_fast ship" speed="10.31" length="11.99" shape="217.57,281.53 214.79,279.48 212.42,276.36 210.49,272.17"/>
    </edge>
    <edge id=":343497570_10" function="internal">
        <lane id=":343497570_10_0" index="0" disallow="tram rail_urban rail rail_electric rail_fast ship" speed="3.65" length="3.23" shape="219.70,281.56 219.41,280.72 219.91,279.98 221.20,279.34"/>
    </edge>
    <edge id=":343497570_3" function="internal">
        <lane id=":343497570_3_0" index="0" disallow="tram rail_urban rail rail_electric rail_fast ship" speed="9.11" length="11.86" shape="213.50,271.07 215.02,274.45 216.81,276.95 218.87,278.58 221.20,279.34"/>
    </edge>
    <edge id=":343497570_4" function="internal">
        <lane id=":343497570_4_0" index="0" disallow="tram rail_urban rail rail_electric rail_fast ship" speed="7.45" length="16.29" shape="213.50,271.07 214.51,275.78 213.59,278.98 210.72,280.68 205.91,280.87"/>
    </edge>
    <edge id=":343497570_5" function="internal">
        <lane id=":343497570_5_0" index="0" disallow="tram rail_urban rail rail_electric rail_fast ship" speed="3.65" length="4.67" shape="213.50,271.07 213.15,272.48 212.54,273.12 211.65,273.02 210.49,272.17"/>
    </edge>
    <edge id=":343497570_6" function="internal">
        <lane id=":343497570_6_0" index="0" disallow="tram rail_urban rail rail_electric rail_fast ship" speed="5.76" length="9.17" shape="206.22,277.68 208.93,277.57 210.54,276.62 211.06,274.82 210.49,272.17"/>
    </edge>
    <edge id=":343497570_7" function="internal">
        <lane id=":343497570_7_0" index="0" disallow="tram rail_urban rail rail_electric rail_fast ship" speed="13.89" length="15.07" shape="206.22,277.68 221.20,279.34"/>
    </edge>
    <edge id=":343497570_8" function="internal">
        <lane id=":343497570_8_0" index="0" disallow="tram rail_urban rail rail_electric rail_fast ship" speed="3.65" length="1.44" shape="206.22,277.68 207.34,278.59"/>
    </edge>
    <edge id=":343497570_11" function="internal">
        <lane id=":343497570_11_0" index="0" disallow="tram rail_urban rail rail_electric rail_fast ship" speed="3.65" length="3.23" shape="207.34,278.59 207.66,279.43 207.18,280.19 205.91,280.87"/>
    </edge>
    <edge id=":3860865844_0" function="internal">
        <lane id=":3860865844_0_0" index="0" disallow="tram rail_urban rail rail_electric rail_fast ship" speed="3.65" length="4.67" shape="384.82,264.35 386.13,264.96 386.65,265.69 386.38,266.54 385.31,267.52"/>
    </edge>
    <edge id=":4914369266_0" function="internal">
        <lane id=":4914369266_0_0" index="0" disallow="tram rail_urban rail rail_electric rail_fast ship" speed="3.65" length="4.67" shape="-0.18,260.58 -1.28,259.65 -1.59,258.81 -1.10,258.06 0.18,257.40"/>
    </edge>

    <edge id="-134408451#0" from="1124642522" to="3860865844" name="Beelitzer Straße" priority="3" type="highway.residential" shape="233.11,282.51 251.90,284.97 264.64,284.72 385.07,265.93">
        <lane id="-134408451#0_0" index="0" disallow="tram rail_urban rail rail_electric rail_fast ship" speed="13.89" length="142.56" shape="243.79,282.30 251.99,283.37 264.50,283.13 384.82,264.35">
            <param key="origId" value="134408451"/>
        </lane>
    </edge>
    <edge id="-134408451#1" from="343497570" to="1124642522" name="Beelitzer Straße" priority="3" type="highway.residential">
        <lane id="-134408451#1_0" index="0" disallow="tram rail_urban rail rail_electric rail_fast ship" speed="13.89" length="1.94" shape="221.20,279.34 223.12,279.59">
            <param key="origId" value="134408451"/>
        </lane>
    </edge>
    <edge id="-134408451#2" from="4914369266" to="343497570" name="Beelitzer Straße" priority="3" type="highway.residential" shape="0.00,258.99 18.77,261.08 25.77,261.74 215.10,280.15">
        <lane id="-134408451#2_0" index="0" disallow="tram rail_urban rail rail_electric rail_fast ship" speed="13.89" length="207.04" shape="0.18,257.40 18.94,259.49 25.92,260.15 206.22,277.68">
            <param key="origId" value="134408451"/>
        </lane>
    </edge>
    <edge id="-30895382" from="343497570" to="255737795" name="Querstraße" priority="3" type="highway.residential" shape="215.10,280.15 181.09,186.87 172.14,160.12 153.93,111.52 112.58,0.00">
        <lane id="-30895382_0" index="0" disallow="tram rail_urban rail rail_electric rail_fast ship" speed="8.33" length="289.25" shape="210.49,272.17 179.58,187.40 170.63,160.66 152.43,112.07 111.08,0.56">
            <param key="origId" value="30895382"/>
        </lane>
    </edge>
    <edge id="-95840836" from="1124642522" to="1110671287" name="Querstraße" priority="3" type="highway.residential">
        <lane id="-95840836_0" index="0" disallow="tram rail_urban rail rail_electric rail_fast ship" speed="13.89" length="105.49" shape="239.85,290.80 293.45,381.66">
            <param key="origId" value="95840836"/>
        </lane>
    </edge>
    <edge id="-97381255" from="1124642521" to="1124642522" name="Beelitzer Straße" priority="3" type="highway.residential" shape="173.68,315.76 228.31,287.57 233.11,282.51">
        <lane id="-97381255_0" index="0" disallow="tram rail_urban rail rail_electric rail_fast ship" speed="13.89" length="57.62" shape="172.95,314.34 224.15,287.92">
            <param key="origId" value="97381255"/>
        </lane>
    </edge>
    <edge id="134408451#0" from="3860865844" to="1124642522" name="Beelitzer Straße" priority="3" type="highway.residential" shape="385.07,265.93 264.64,284.72 251.90,284.97 233.11,282.51">
        <lane id="134408451#0_0" index="0" disallow="tram rail_urban rail rail_electric rail_fast ship" speed="13.89" length="143.47" shape="385.31,267.52 264.78,286.32 251.81,286.58 243.37,285.47">
            <param key="origId" value="134408451"/>
        </lane>
    </edge>
    <edge id="134408451#1" from="1124642522" to="343497570" name="Beelitzer Straße" priority="3" type="highway.residential">
        <lane id="134408451#1_0" index="0" disallow="tram rail_urban rail rail_electric rail_fast ship" speed="13.89" length="1.94" shape="222.71,282.76 220.79,282.51">
            <param key="origId" value="134408451"/>
        </lane>
    </edge>
    <edge id="134408451#2" from="343497570" to="4914369266" name="Beelitzer Straße" priority="3" type="highway.residential" shape="215.10,280.15 25.77,261.74 18.77,261.08 0.00,258.99">
        <lane id="134408451#2_0" index="0" disallow="tram rail_urban rail rail_electric rail_fast ship" speed="13.89" length="207.09" shape="205.91,280.87 25.62,263.33 18.61,262.67 -0.18,260.58">
            <param key="origId" value="134408451"/>
        </lane>
    </edge>
    <edge id="30895382" from="255737795" to="343497570" name="Querstraße" priority="3" type="highway.residential" shape="112.58,0.00 153.93,111.52 172.14,160.12 181.09,186.87 215.10,280.15">
        <lane id="30895382_0" index="0" disallow="tram rail_urban rail rail_electric rail_fast ship" speed="8.33" length="289.27" shape="114.08,-0.56 155.43,110.96 173.65,159.59 182.60,186.34 213.50,271.07">
            <param key="origId" value="30895382"/>
        </lane>
    </edge>
    <edge id="95840836" from="1110671287" to="1124642522" name="Querstraße" priority="3" type="highway.residential">
        <lane id="95840836_0" index="0" disallow="tram rail_urban rail rail_electric rail_fast ship" speed="13.89" length="105.49" shape="290.69,383.29 237.10,292.42">
            <param key="origId" value="95840836"/>
        </lane>
    </edge>
    <edge id="97381255" from="1124642522" to="1124642521" name="Beelitzer Straße" priority="3" type="highway.residential" shape="233.11,282.51 228.31,287.57 173.68,315.76">
        <lane id="97381255_0" index="0" disallow="tram rail_urban rail rail_electric rail_fast ship" speed="13.89" length="58.71" shape="226.58,290.26 174.42,317.19">
            <param key="origId" value="97381255"/>
        </lane>
    </edge>

    <junction id="1110671287" type="priority" x="292.07" y="382.48" incLanes="-95840836_0" intLanes=":1110671287_0_0" shape="292.07,382.48 294.82,380.85 292.07,382.48">
        <request index="0" response="0" foes="0" cont="0"/>
    </junction>
    <junction id="1124642521" type="priority" x="173.68" y="315.76" incLanes="97381255_0" intLanes=":1124642521_0_0" shape="173.68,315.76 175.15,318.61 173.68,315.76">
        <request index="0" response="0" foes="0" cont="0"/>
    </junction>
    <junction id="1124642522" type="priority" x="233.11" y="282.51" incLanes="95840836_0 134408451#0_0 -134408451#1_0 -97381255_0" intLanes=":1124642522_0_0 :1124642522_1_0 :1124642522_2_0 :1124642522_3_0 :1124642522_4_0 :1124642522_5_0 :1124642522_6_0 :1124642522_16_0 :1124642522_8_0 :1124642522_17_0 :1124642522_18_0 :1124642522_19_0 :1124642522_12_0 :1124642522_13_0 :1124642522_14_0 :1124642522_15_0" shape="235.72,293.23 241.23,289.98 240.54,288.13 240.70,287.53 241.19,287.15 242.01,286.99 243.17,287.06 244.00,280.71 223.33,278.00 222.50,284.35 224.35,284.85 224.63,285.21 224.49,285.65 223.93,286.16 222.94,286.74 227.80,291.44 231.02,290.43 232.41,290.53 233.66,291.03 234.76,291.93">
        <request index="0"  response="0000010000100000" foes="1000010000100000" cont="0"/>
        <request index="1"  response="0111010001100000" foes="0111110001100000" cont="0"/>
        <request index="2"  response="0110001101100000" foes="0110011111100000" cont="0"/>
        <request index="3"  response="0100001000010000" foes="0100001000010000" cont="0"/>
        <request index="4"  response="0000000000000000" foes="0100001000001000" cont="0"/>
        <request index="5"  response="0000000000000000" foes="1100011000000111" cont="0"/>
        <request index="6"  response="0000000000000000" foes="0011111000000110" cont="0"/>
        <request index="7"  response="0010000100000100" foes="0010000100000100" cont="1"/>
        <request index="8"  response="0000000000000000" foes="0010000010000100" cont="0"/>
        <request index="9"  response="0000000001110000" foes="0110000001111100" cont="1"/>
        <request index="10" response="0000000001100100" foes="1110000001100111" cont="1"/>
        <request index="11" response="0001000001000010" foes="0001000001000010" cont="1"/>
        <request index="12" response="0000000001000000" foes="0000100001000010" cont="0"/>
        <request index="13" response="0000011101000000" foes="0000011111000110" cont="0"/>
        <request index="14" response="0000011000110000" foes="0000011000111110" cont="0"/>
        <request index="15" response="0000010000100001" foes="0000010000100001" cont="0"/>
    </junction>
    <junction id="255737795" type="priority" x="112.58" y="0.00" incLanes="-30895382_0" intLanes=":255737795_0_0" shape="112.58,0.00 109.58,1.11 112.58,-0.00">
        <request index="0" response="0" foes="0" cont="0"/>
    </junction>
    <junction id="343497570" type="priority" x="215.10" y="280.15" incLanes="134408451#1_0 30895382_0 -134408451#2_0" intLanes=":343497570_0_0 :343497570_9_0 :343497570_10_0 :343497570_3_0 :343497570_4_0 :343497570_5_0 :343497570_6_0 :343497570_7_0 :343497570_11_0" shape="220.58,284.10 221.41,277.75 218.94,276.72 217.82,275.69 216.80,274.31 215.86,272.59 215.00,270.53 208.99,272.72 209.30,274.76 209.02,275.44 208.43,275.89 207.55,276.10 206.37,276.09 205.76,282.46">
        <request index="0" response="000000000" foes="100010000" cont="0"/>
        <request index="1" response="011000000" foes="011110000" cont="1"/>
        <request index="2" response="010001000" foes="010001000" cont="1"/>
        <request index="3" response="010000000" foes="010000100" cont="0"/>
        <request index="4" response="010000011" foes="110000011" cont="0"/>
        <request index="5" response="001000010" foes="001000010" cont="0"/>
        <request index="6" response="000000000" foes="000100010" cont="0"/>
        <request index="7" response="000000000" foes="000011110" cont="0"/>
        <request index="8" response="000010001" foes="000010001" cont="1"/>
    </junction>
    <junction id="3860865844" type="priority" x="385.07" y="265.93" incLanes="-134408451#0_0" intLanes=":3860865844_0_0" shape="385.07,265.93 384.57,262.77 385.07,265.93">
        <request index="0" response="0" foes="0" cont="0"/>
    </junction>
    <junction id="4914369266" type="priority" x="0.00" y="258.99" incLanes="134408451#2_0" intLanes=":4914369266_0_0" shape="0.00,258.99 -0.35,262.17 0.00,258.99">
        <request index="0" response="0" foes="0" cont="0"/>
    </junction>

    <junction id=":1124642522_16_0" type="internal" x="242.29" y="284.52" incLanes=":1124642522_7_0 -134408451#1_0 -97381255_0 95840836_0" intLanes=":1124642522_2_0 :1124642522_8_0 :1124642522_13_0"/>
    <junction id=":1124642522_17_0" type="internal" x="228.61" y="281.00" incLanes=":1124642522_9_0 134408451#0_0" intLanes=":1124642522_2_0 :1124642522_3_0 :1124642522_4_0 :1124642522_5_0 :1124642522_6_0 :1124642522_13_0 :1124642522_14_0"/>
    <junction id=":1124642522_18_0" type="internal" x="230.56" y="281.20" incLanes=":1124642522_10_0 134408451#0_0" intLanes=":1124642522_0_0 :1124642522_1_0 :1124642522_5_0 :1124642522_6_0 :1124642522_13_0 :1124642522_14_0 :1124642522_15_0"/>
    <junction id=":1124642522_19_0" type="internal" x="224.21" y="280.54" incLanes=":1124642522_11_0 -97381255_0 134408451#0_0 95840836_0" intLanes=":1124642522_1_0 :1124642522_6_0 :1124642522_12_0"/>
    <junction id=":343497570_9_0" type="internal" x="217.57" y="281.53" incLanes=":343497570_1_0 -134408451#2_0" intLanes=":343497570_4_0 :343497570_5_0 :343497570_6_0 :343497570_7_0"/>
    <junction id=":343497570_10_0" type="internal" x="219.70" y="281.56" incLanes=":343497570_2_0 -134408451#2_0 30895382_0" intLanes=":343497570_3_0 :343497570_7_0"/>
    <junction id=":343497570_11_0" type="internal" x="207.34" y="278.59" incLanes=":343497570_8_0 134408451#1_0 30895382_0" intLanes=":343497570_0_0 :343497570_4_0"/>

    <connection from="-134408451#0" to="134408451#0" fromLane="0" toLane="0" via=":3860865844_0_0" dir="t" state="M"/>
    <connection from="-134408451#1" to="-134408451#0" fromLane="0" toLane="0" via=":1124642522_8_0" dir="s" state="M"/>
    <connection from="-134408451#1" to="-95840836" fromLane="0" toLane="0" via=":1124642522_9_0" dir="L" state="m"/>
    <connection from="-134408451#1" to="97381255" fromLane="0" toLane="0" via=":1124642522_10_0" dir="l" state="m"/>
    <connection from="-134408451#1" to="134408451#1" fromLane="0" toLane="0" via=":1124642522_11_0" dir="t" state="m"/>
    <connection from="-134408451#2" to="-30895382" fromLane="0" toLane="0" via=":343497570_6_0" dir="r" state="M"/>
    <connection from="-134408451#2" to="-134408451#1" fromLane="0" toLane="0" via=":343497570_7_0" dir="s" state="M"/>
    <connection from="-134408451#2" to="134408451#2" fromLane="0" toLane="0" via=":343497570_8_0" dir="t" state="m"/>
    <connection from="-30895382" to="30895382" fromLane="0" toLane="0" via=":255737795_0_0" dir="t" state="M"/>
    <connection from="-95840836" to="95840836" fromLane="0" toLane="0" via=":1110671287_0_0" dir="t" state="M"/>
    <connection from="-97381255" to="134408451#1" fromLane="0" toLane="0" via=":1124642522_12_0" dir="r" state="m"/>
    <connection from="-97381255" to="-134408451#0" fromLane="0" toLane="0" via=":1124642522_13_0" dir="L" state="m"/>
    <connection from="-97381255" to="-95840836" fromLane="0" toLane="0" via=":1124642522_14_0" dir="l" state="m"/>
    <connection from="-97381255" to="97381255" fromLane="0" toLane="0" via=":1124642522_15_0" dir="t" state="m"/>
    <connection from="134408451#0" to="-95840836" fromLane="0" toLane="0" via=":1124642522_4_0" dir="r" state="M"/>
    <connection from="134408451#0" to="97381255" fromLane="0" toLane="0" via=":1124642522_5_0" dir="R" state="M"/>
    <connection from="134408451#0" to="134408451#1" fromLane="0" toLane="0" via=":1124642522_6_0" dir="s" state="M"/>
    <connection from="134408451#0" to="-134408451#0" fromLane="0" toLane="0" via=":1124642522_7_0" dir="t" state="m"/>
    <connection from="134408451#1" to="134408451#2" fromLane="0" toLane="0" via=":343497570_0_0" dir="s" state="M"/>
    <connection from="134408451#1" to="-30895382" fromLane="0" toLane="0" via=":343497570_1_0" dir="l" state="m"/>
    <connection from="134408451#1" to="-134408451#1" fromLane="0" toLane="0" via=":343497570_2_0" dir="t" state="m"/>
    <connection from="134408451#2" to="-134408451#2" fromLane="0" toLane="0" via=":4914369266_0_0" dir="t" state="M"/>
    <connection from="30895382" to="-134408451#1" fromLane="0" toLane="0" via=":343497570_3_0" dir="r" state="m"/>
    <connection from="30895382" to="134408451#2" fromLane="0" toLane="0" via=":343497570_4_0" dir="l" state="m"/>
    <connection from="30895382" to="-30895382" fromLane="0" toLane="0" via=":343497570_5_0" dir="t" state="m"/>
    <connection from="95840836" to="97381255" fromLane="0" toLane="0" via=":1124642522_0_0" dir="r" state="m"/>
    <connection from="95840836" to="134408451#1" fromLane="0" toLane="0" via=":1124642522_1_0" dir="R" state="m"/>